Version 4
SHEET 1 1456 840
WIRE 32 -304 -96 -304
WIRE 480 -304 448 -304
WIRE 544 -304 480 -304
WIRE 656 -304 624 -304
WIRE 736 -304 656 -304
WIRE 848 -304 736 -304
WIRE 944 -304 848 -304
WIRE 1120 -304 1024 -304
WIRE 1216 -304 1120 -304
WIRE -96 -288 -96 -304
WIRE 480 -288 480 -304
WIRE 656 -288 656 -304
WIRE 736 -288 736 -304
WIRE 1120 -288 1120 -304
WIRE 1216 -240 1216 -304
WIRE 848 -224 848 -304
WIRE -96 -208 -96 -224
WIRE -64 -208 -96 -208
WIRE 32 -208 16 -208
WIRE 480 -208 480 -224
WIRE 480 -208 448 -208
WIRE 656 -192 656 -224
WIRE 736 -192 736 -208
WIRE 736 -192 656 -192
WIRE 736 -176 736 -192
WIRE 1120 -176 1120 -208
WIRE -96 -112 -96 -208
WIRE -96 -112 -160 -112
WIRE 16 -112 -96 -112
WIRE 32 -112 16 -112
WIRE 656 -112 656 -192
WIRE 656 -112 448 -112
WIRE -160 -96 -160 -112
WIRE 736 -80 736 -96
WIRE 848 -80 848 -160
WIRE 1120 -80 1120 -112
WIRE 1216 -80 1216 -160
WIRE 16 -16 16 -112
WIRE 32 -16 16 -16
WIRE 480 -16 448 -16
WIRE 544 -16 480 -16
WIRE 656 -16 624 -16
WIRE 736 -16 656 -16
WIRE 848 -16 736 -16
WIRE 944 -16 848 -16
WIRE 1120 -16 1024 -16
WIRE 1216 -16 1120 -16
WIRE -160 0 -160 -16
WIRE 480 0 480 -16
WIRE 656 0 656 -16
WIRE 736 0 736 -16
WIRE 1120 0 1120 -16
WIRE 1216 48 1216 -16
WIRE 848 64 848 -16
WIRE 32 80 16 80
WIRE 480 80 480 64
WIRE 480 80 448 80
WIRE 656 96 656 64
WIRE 736 96 736 80
WIRE 736 96 656 96
WIRE 736 112 736 96
WIRE 1120 112 1120 80
WIRE -64 176 -80 176
WIRE 16 176 16 80
WIRE 16 176 0 176
WIRE 32 176 16 176
WIRE 656 176 656 96
WIRE 656 176 448 176
WIRE 736 208 736 192
WIRE 848 208 848 128
WIRE 1120 208 1120 176
WIRE 1216 208 1216 128
WIRE 16 272 16 176
WIRE 32 272 16 272
WIRE 480 272 448 272
WIRE 544 272 480 272
WIRE 656 272 624 272
WIRE 736 272 656 272
WIRE 848 272 736 272
WIRE 944 272 848 272
WIRE 1120 272 1024 272
WIRE 1216 272 1120 272
WIRE 480 288 480 272
WIRE 656 288 656 272
WIRE 736 288 736 272
WIRE 1120 288 1120 272
WIRE 1216 336 1216 272
WIRE 848 352 848 272
WIRE 32 368 16 368
WIRE 480 368 480 352
WIRE 480 368 448 368
WIRE 656 384 656 352
WIRE 736 384 736 368
WIRE 736 384 656 384
WIRE 736 400 736 384
WIRE 1120 400 1120 368
WIRE -64 464 -80 464
WIRE 32 464 16 464
WIRE 656 464 656 384
WIRE 656 464 448 464
WIRE 736 496 736 480
WIRE 848 496 848 416
WIRE 1120 496 1120 464
WIRE 1216 496 1216 416
WIRE 240 544 240 528
FLAG 240 544 0
FLAG -160 0 0
FLAG -80 176 0
FLAG -80 464 0
FLAG 736 -80 0
FLAG -160 -112 IN
FLAG 736 496 0
FLAG 736 208 0
FLAG 1216 -80 0
FLAG 1216 -304 OUT4
FLAG 1120 -80 0
FLAG 848 -80 0
FLAG 1216 208 0
FLAG 1216 -16 OUT3
FLAG 1120 208 0
FLAG 848 208 0
FLAG 1216 496 0
FLAG 1216 272 OUT1
FLAG 1120 496 0
FLAG 848 496 0
SYMBOL voltage -160 -112 R0
WINDOW 123 0 0 Left 2
WINDOW 39 0 0 Left 2
SYMATTR InstName V1
SYMATTR Value 16
SYMBOL ind -80 -192 R270
WINDOW 0 32 56 VTop 2
WINDOW 3 5 56 VBottom 2
SYMATTR InstName L1
SYMATTR Value 20µ
SYMATTR SpiceLine Rser=50m
SYMBOL cap -112 -288 R0
SYMATTR InstName C1
SYMATTR Value 1µ
SYMATTR SpiceLine V=50 Irms=0 Rser=0.008 Lser=0 mfg="TDK" pn="C3225X7RlHlO5M" type="X7R"
SYMBOL cap 0 160 R90
WINDOW 0 0 32 VBottom 2
WINDOW 3 32 32 VTop 2
SYMATTR InstName C2
SYMATTR Value 2000p
SYMBOL res 32 448 R90
WINDOW 0 0 56 VBottom 2
WINDOW 3 32 56 VTop 2
SYMATTR InstName R1
SYMATTR Value 18.2K
SYMBOL schottky 464 -224 M180
WINDOW 0 24 64 Left 2
WINDOW 3 24 0 Left 2
SYMATTR InstName D1
SYMATTR Value MBRS140
SYMATTR Description Diode
SYMATTR Type diode
SYMBOL ind 528 -288 R270
WINDOW 0 32 56 VTop 2
WINDOW 3 5 56 VBottom 2
SYMATTR InstName L2
SYMATTR Value 20µ
SYMATTR SpiceLine Rser=50m
SYMBOL res 720 -304 R0
SYMATTR InstName R2
SYMATTR Value 26.5k
SYMBOL res 720 -192 R0
SYMATTR InstName R3
SYMATTR Value 5k
SYMBOL cap 832 -224 R0
SYMATTR InstName C3
SYMATTR Value 6.6µ
SYMATTR SpiceLine V=10 Irms=10.206 Rser=0.005 Lser=0 mfg="KEMET" pn="C1210C226K8PAC" type="X5R"
SYMBOL schottky 464 352 M180
WINDOW 0 24 64 Left 2
WINDOW 3 24 0 Left 2
SYMATTR InstName D2
SYMATTR Value MBRS140
SYMATTR Description Diode
SYMATTR Type diode
SYMBOL ind 528 288 R270
WINDOW 0 32 56 VTop 2
WINDOW 3 5 56 VBottom 2
SYMATTR InstName L3
SYMATTR Value 20µ
SYMATTR SpiceLine Rser=50m
SYMBOL res 720 272 R0
SYMATTR InstName R8
SYMATTR Value 88.7k
SYMBOL res 720 384 R0
SYMATTR InstName R9
SYMATTR Value 5k
SYMBOL schottky 464 64 M180
WINDOW 0 24 64 Left 2
WINDOW 3 24 0 Left 2
SYMATTR InstName D3
SYMATTR Value MBRS140
SYMATTR Description Diode
SYMATTR Type diode
SYMBOL ind 528 0 R270
WINDOW 0 32 56 VTop 2
WINDOW 3 5 56 VBottom 2
SYMATTR InstName L4
SYMATTR Value 20µ
SYMATTR SpiceLine Rser=50m
SYMBOL res 720 -16 R0
SYMATTR InstName R5
SYMATTR Value 70k
SYMBOL res 720 96 R0
SYMATTR InstName R6
SYMATTR Value 5k
SYMBOL PowerProducts\\LT3514 240 80 R0
SYMATTR InstName U1
SYMBOL cap 640 -288 R0
SYMATTR InstName C6
SYMATTR Value 22p
SYMBOL cap 640 0 R0
SYMATTR InstName C7
SYMATTR Value 47p
SYMBOL cap 640 288 R0
WINDOW 3 6 77 Left 2
SYMATTR Value 100p
SYMATTR InstName C8
SYMBOL res 1200 -256 R0
SYMATTR InstName Rload4
SYMATTR Value 5
SYMBOL ind 928 -288 R270
WINDOW 0 32 56 VTop 2
WINDOW 3 5 56 VBottom 2
SYMATTR InstName L6
SYMATTR Value 100µ
SYMBOL res 1104 -304 R0
SYMATTR InstName R4
SYMATTR Value 100
SYMBOL cap 1104 -176 R0
SYMATTR InstName C10
SYMATTR Value 100µ
SYMBOL cap 832 64 R0
SYMATTR InstName C5
SYMATTR Value 11µ
SYMATTR SpiceLine V=10 Irms=10.206 Rser=0.005 Lser=0 mfg="KEMET" pn="C1210C226K8PAC" type="X5R"
SYMBOL res 1200 32 R0
SYMATTR InstName Rload3
SYMATTR Value 6
SYMBOL ind 928 0 R270
WINDOW 0 32 56 VTop 2
WINDOW 3 5 56 VBottom 2
SYMATTR InstName L5
SYMATTR Value 100µ
SYMBOL res 1104 -16 R0
SYMATTR InstName R7
SYMATTR Value 100
SYMBOL cap 1104 112 R0
SYMATTR InstName C9
SYMATTR Value 100µ
SYMBOL cap 832 352 R0
SYMATTR InstName C4
SYMATTR Value 11µ
SYMATTR SpiceLine V=10 Irms=10.206 Rser=0.005 Lser=0 mfg="KEMET" pn="C1210C226K8PAC" type="X5R"
SYMBOL res 1200 320 R0
SYMATTR InstName Rload1
SYMATTR Value 15
SYMBOL ind 928 288 R270
WINDOW 0 32 56 VTop 2
WINDOW 3 5 56 VBottom 2
SYMATTR InstName L7
SYMATTR Value 100µ
SYMBOL res 1104 272 R0
SYMATTR InstName R10
SYMATTR Value 100
SYMBOL cap 1104 400 R0
SYMATTR InstName C11
SYMATTR Value 100µ
TEXT 896 552 Left 2 !.tran 1.2m startup
